Version 4
SHEET 1 880 680
WIRE 272 -96 -16 -96
WIRE 272 0 272 -96
WIRE 272 0 224 0
WIRE 304 0 272 0
WIRE -16 32 -16 -96
WIRE 224 32 224 0
WIRE 304 32 304 0
WIRE 160 80 160 32
WIRE 160 80 80 80
WIRE 368 80 368 32
WIRE 464 80 368 80
WIRE 160 128 160 80
WIRE 368 128 368 80
WIRE 224 160 224 128
WIRE 272 160 224 160
WIRE 304 160 304 128
WIRE 304 160 272 160
WIRE -16 224 -16 112
WIRE 272 224 272 160
WIRE 272 224 -16 224
WIRE 80 240 80 80
WIRE 464 240 464 160
WIRE 464 240 80 240
WIRE 464 256 464 240
FLAG 464 256 0
SYMBOL diode 160 16 M90
WINDOW 0 0 32 VBottom 2
WINDOW 3 32 32 VTop 2
SYMATTR InstName D1
SYMATTR Value 1N4148
SYMBOL diode 160 112 M90
WINDOW 0 0 32 VBottom 2
WINDOW 3 32 32 VTop 2
SYMATTR InstName D2
SYMATTR Value 1N4148
SYMBOL diode 304 16 M90
WINDOW 0 0 32 VBottom 2
WINDOW 3 32 32 VTop 2
SYMATTR InstName D3
SYMATTR Value 1N4148
SYMBOL diode 304 112 M90
WINDOW 0 0 32 VBottom 2
WINDOW 3 32 32 VTop 2
SYMATTR InstName D4
SYMATTR Value 1N4148
SYMBOL voltage -16 16 R0
WINDOW 3 24 44 Left 2
WINDOW 123 0 0 Left 2
WINDOW 39 24 72 Left 2
SYMATTR Value SINE(0 10 0.0001 10)
SYMATTR SpiceLine Rser=0
SYMATTR InstName V1
SYMBOL res 448 64 R0
SYMATTR InstName R1
SYMATTR Value 200
TEXT -48 280 Left 2 !.tran 0 100000 0 10000
